taskid: 0 hostname: qnode3038
 module_io_quilt_old.F        2931 F
Quilting with   1 groups of   0 I/O tasks.
 Ntasks in X           10 , ntasks in Y           20
  *************************************
  No physics suite selected.
  Physics options will be used directly from the namelist.
  *************************************
  Domain # 1: dx =  4000.000 m
  --- WARNING: traj_opt is zero, but num_traj is not zero; setting num_traj to zero.
  --- NOTE: qna_update is 0, setting io_form_auxinput17 = 0 and auxinput17_interval = 0 for all domains
  --- NOTE: obs_nudge_opt is 0 for domain      1, setting obs nudging interval and ending time to 0 for that domain.
  --- NOTE: bl_pbl_physics /= 4, implies mfshconv must be 0, resetting
  Need MYNN PBL for icloud_bl = 1, resetting to 0
  --- NOTE: RRTMG radiation is used, namelist value for o3input (ozone input) is used
  --- NOTE: One of the RRTMG radiation schemes is in use, setting:  levsiz=59, alevsiz=12, no_src_types=6
  --- NOTE: num_soil_layers has been set to      2
WRF V4.5.1 MODEL
git commit abd88db6ae47e7c8819274801d12c679a35aea96 3 files changed, 49 insertions(+), 49 deletions(-)
  wrf: calling alloc_and_configure_domain
 *************************************
 Parent domain
 ids,ide,jds,jde            1         445           1         421
 ims,ime,jms,jme           -4          52          -4          28
 ips,ipe,jps,jpe            1          45           1          21
 *************************************
DYNAMICS OPTION: Eulerian Mass Coordinate
   alloc_space_field: domain            1 ,              68808076  bytes allocated
  wrf: calling model_to_grid_config_rec
  wrf: calling set_scalar_indices_from_config
  wrf: calling init_wrfio
  Entering ext_gr1_ioinit
   DEBUG wrf_timetoa():  returning with str = [2023-01-01_00:00:00]
   DEBUG wrf_timetoa():  returning with str = [2023-01-01_00:00:00]
   DEBUG wrf_timetoa():  returning with str = [2023-01-02_00:00:00]
   DEBUG wrf_timeinttoa():  returning with str = [0000000000_000:000:020]
 DEBUG setup_timekeeping():  clock after creation,  clock start time = 2023-01-01_00:00:00
 DEBUG setup_timekeeping():  clock after creation,  clock current time = 2023-01-01_00:00:00
 DEBUG setup_timekeeping():  clock after creation,  clock stop time = 2023-01-02_00:00:00
 DEBUG setup_timekeeping():  clock after creation,  clock time step = 0000000000_000:000:020
   setup_timekeeping:  set xtime to    0.00000000
   setup_timekeeping:  set julian to    0.00000000
  setup_timekeeping:  returning...
   DEBUG wrf_timetoa():  returning with str = [2023-01-01_00:00:00]
 RESTART run: opening wrfrst_d01_2023-01-01_00:00:00 for reading
   input_wrf: begin
  module_io.F: in wrf_inquire_filename
   input_wrf: filestate =          103
   input_wrf: dryrun =  F  switch           51
  module_io.F: in wrf_inquire_filename
   Input data is acceptable to use: wrfrst_d01_2023-01-01_00:00:00_0000
    input_wrf, restart_only:  SIMULATION_START_DATE = 2022-12-23_00:00:00
   input_wrf:  set xtime to    12960.0000
   input_wrf: wrf_get_dom_ti_real for CEN_LAT returns    42.8265381
   input_wrf: wrf_get_dom_ti_real for CEN_LON returns   -88.1264038
   input_wrf: wrf_get_dom_ti_real for TRUELAT1 returns    33.0000000
   input_wrf: wrf_get_dom_ti_real for TRUELAT2 returns    45.0000000
   input_wrf: wrf_get_dom_ti_real for MOAD_CEN_LAT returns    40.5735626
   input_wrf: wrf_get_dom_ti_real for STAND_LON returns   -97.0000000
   input_wrf: wrf_get_dom_ti_real for POLE_LAT returns    90.0000000
   input_wrf: wrf_get_dom_ti_real for POLE_LON returns    0.00000000
   input_wrf: wrf_get_dom_ti_real for GMT returns    0.00000000
   input_wrf: wrf_get_dom_ti_integer for JULYR returns         2022
   input_wrf: wrf_get_dom_ti_integer for JULDAY returns          357
   input_wrf: wrf_get_dom_ti_integer for MAP_PROJ returns            1
  mminlu = 'NLCD40'
   input_wrf: wrf_get_dom_ti_char for MMINLU returns NLCD40
   input_wrf: wrf_get_dom_ti_integer for ISWATER returns           17
   input_wrf: wrf_get_dom_ti_integer for ISLAKE returns           -1
   input_wrf: wrf_get_dom_ti_integer for ISICE returns           15
   input_wrf: wrf_get_dom_ti_integer for ISURBAN returns           13
   input_wrf: wrf_get_dom_ti_integer for ISOILWATER returns           14
             1  input_wrf: wrf_get_next_time current_date: 2023-01-01_00:00:00 Status =            0
input_wrf.F reading 2d real xlat
 date 2023-01-01_00:00:00
 ds            1           1           1
 de          444         420           1
 ps            1           1           1
 pe           45          21           1
 ms           -4          -4           1
 me           52          28           1
 input_wrf.F reading 2d real xlat Status =            0
input_wrf.F reading 2d real xlong
 date 2023-01-01_00:00:00
 ds            1           1           1
 de          444         420           1
 ps            1           1           1
 pe           45          21           1
 ms           -4          -4           1
 me           52          28           1
 input_wrf.F reading 2d real xlong Status =            0
input_wrf.F reading 2d real lu_index
 date 2023-01-01_00:00:00
 ds            1           1           1
 de          444         420           1
 ps            1           1           1
 pe           45          21           1
 ms           -4          -4           1
 me           52          28           1
 input_wrf.F reading 2d real lu_index Status =            0
input_wrf.F reading 1d real znu
 date 2023-01-01_00:00:00
 ds            1           1           1
 de           35           1           1
 ps            1           1           1
 pe           35           1           1
 ms            1           1           1
 me           36           1           1
 input_wrf.F reading 1d real znu Status =            0
input_wrf.F reading 1d real znw
 date 2023-01-01_00:00:00
 ds            1           1           1
 de           36           1           1
 ps            1           1           1
 pe           36           1           1
 ms            1           1           1
 me           36           1           1
 input_wrf.F reading 1d real znw Status =            0
input_wrf.F reading 1d real zs
 date 2023-01-01_00:00:00
 ds            1           1           1
 de            2           1           1
 ps            1           1           1
 pe            2           1           1
 ms            1           1           1
 me            2           1           1
 input_wrf.F reading 1d real zs Status =            0
input_wrf.F reading 1d real dzs
 date 2023-01-01_00:00:00
 ds            1           1           1
 de            2           1           1
 ps            1           1           1
 pe            2           1           1
 ms            1           1           1
 me            2           1           1
 input_wrf.F reading 1d real dzs Status =            0
input_wrf.F reading 2d real var_sso
 date 2023-01-01_00:00:00
 ds            1           1           1
 de          444         420           1
 ps            1           1           1
 pe           45          21           1
 ms           -4          -4           1
 me           52          28           1
 input_wrf.F reading 2d real var_sso Status =            0
input_wrf.F reading 2d real lap_hgt
 date 2023-01-01_00:00:00
 ds            1           1           1
 de          444         420           1
 ps            1           1           1
 pe           45          21           1
 ms           -4          -4           1
 me           52          28           1
 input_wrf.F reading 2d real lap_hgt Status =            0
input_wrf.F reading 3d real erod
 date 2023-01-01_00:00:00
 ds            1           1           1
 de          444         420           3
 ps            1           1           1
 pe           45          21           3
 ms           -4          -4           1
 me           52          28           3
 input_wrf.F reading 3d real erod Status =            0
input_wrf.F reading 0d integer bathymetry_flag
 date 2023-01-01_00:00:00
 ds            1           1           1
 de            1           1           1
 ps            1           1           1
 pe            1           1           1
 ms            1           1           1
 me            1           1           1
 input_wrf.F reading 0d integer bathymetry_flag Status =            0
input_wrf.F reading 3d real u_1
 date 2023-01-01_00:00:00
 ds            1           1           1
 de          445          35         420
 ps            1           1           1
 pe           45          35          21
 ms           -4           1          -4
 me           52          36          28
 input_wrf.F reading 3d real u_1 Status =            0
input_wrf.F reading 3d real u_2
 date 2023-01-01_00:00:00
 ds            1           1           1
 de          445          35         420
 ps            1           1           1
 pe           45          35          21
 ms           -4           1          -4
 me           52          36          28
 input_wrf.F reading 3d real u_2 Status =            0
input_wrf.F reading 3d real v_1
 date 2023-01-01_00:00:00
 ds            1           1           1
 de          444          35         421
 ps            1           1           1
 pe           45          35          21
 ms           -4           1          -4
 me           52          36          28
 input_wrf.F reading 3d real v_1 Status =            0
input_wrf.F reading 3d real v_2
 date 2023-01-01_00:00:00
 ds            1           1           1
 de          444          35         421
 ps            1           1           1
 pe           45          35          21
 ms           -4           1          -4
 me           52          36          28
 input_wrf.F reading 3d real v_2 Status =            0
input_wrf.F reading 3d real w_1
 date 2023-01-01_00:00:00
 ds            1           1           1
 de          444          36         420
 ps            1           1           1
 pe           45          36          21
 ms           -4           1          -4
 me           52          36          28
 input_wrf.F reading 3d real w_1 Status =            0
input_wrf.F reading 3d real w_2
 date 2023-01-01_00:00:00
 ds            1           1           1
 de          444          36         420
 ps            1           1           1
 pe           45          36          21
 ms           -4           1          -4
 me           52          36          28
 input_wrf.F reading 3d real w_2 Status =            0
input_wrf.F reading 3d real ww
 date 2023-01-01_00:00:00
 ds            1           1           1
 de          444          36         420
 ps            1           1           1
 pe           45          36          21
 ms           -4           1          -4
 me           52          36          28
 input_wrf.F reading 3d real ww Status =            0
input_wrf.F reading 3d real ww_m
 date 2023-01-01_00:00:00
 ds            1           1           1
 de          444          36         420
 ps            1           1           1
 pe           45          36          21
 ms           -4           1          -4
 me           52          36          28
 input_wrf.F reading 3d real ww_m Status =            0
input_wrf.F reading 3d real ph_1
 date 2023-01-01_00:00:00
 ds            1           1           1
 de          444          36         420
 ps            1           1           1
 pe           45          36          21
 ms           -4           1          -4
 me           52          36          28
 input_wrf.F reading 3d real ph_1 Status =            0
input_wrf.F reading 3d real ph_2
 date 2023-01-01_00:00:00
 ds            1           1           1
 de          444          36         420
 ps            1           1           1
 pe           45          36          21
 ms           -4           1          -4
 me           52          36          28
 input_wrf.F reading 3d real ph_2 Status =            0
input_wrf.F reading 3d real phb
 date 2023-01-01_00:00:00
 ds            1           1           1
 de          444          36         420
 ps            1           1           1
 pe           45          36          21
 ms           -4           1          -4
 me           52          36          28
 input_wrf.F reading 3d real phb Status =            0
input_wrf.F reading 3d real ph0
 date 2023-01-01_00:00:00
 ds            1           1           1
 de          444          36         420
 ps            1           1           1
 pe           45          36          21
 ms           -4           1          -4
 me           52          36          28
 input_wrf.F reading 3d real ph0 Status =            0
input_wrf.F reading 3d real php
 date 2023-01-01_00:00:00
 ds            1           1           1
 de          444          35         420
 ps            1           1           1
 pe           45          35          21
 ms           -4           1          -4
 me           52          36          28
 input_wrf.F reading 3d real php Status =            0
input_wrf.F reading 3d real th_phy_m_t0
 date 2023-01-01_00:00:00
 ds            1           1           1
 de          444          35         420
 ps            1           1           1
 pe           45          35          21
 ms           -4           1          -4
 me           52          36          28
 input_wrf.F reading 3d real th_phy_m_t0 Status =            0
input_wrf.F reading 3d real t_1
 date 2023-01-01_00:00:00
 ds            1           1           1
 de          444          35         420
 ps            1           1           1
 pe           45          35          21
 ms           -4           1          -4
 me           52          36          28
 input_wrf.F reading 3d real t_1 Status =            0
input_wrf.F reading 3d real t_2
 date 2023-01-01_00:00:00
 ds            1           1           1
 de          444          35         420
 ps            1           1           1
 pe           45          35          21
 ms           -4           1          -4
 me           52          36          28
 input_wrf.F reading 3d real t_2 Status =            0
input_wrf.F reading 3d real t_init
 date 2023-01-01_00:00:00
 ds            1           1           1
 de          444          35         420
 ps            1           1           1
 pe           45          35          21
 ms           -4           1          -4
 me           52          36          28
 input_wrf.F reading 3d real t_init Status =            0
input_wrf.F reading 0d real hfx_force
 date 2023-01-01_00:00:00
 ds            1           1           1
 de            1           1           1
 ps            1           1           1
 pe            1           1           1
 ms            1           1           1
 me            1           1           1
 input_wrf.F reading 0d real hfx_force Status =            0
input_wrf.F reading 0d real lh_force
 date 2023-01-01_00:00:00
 ds            1           1           1
 de            1           1           1
 ps            1           1           1
 pe            1           1           1
 ms            1           1           1
 me            1           1           1
 input_wrf.F reading 0d real lh_force Status =            0
input_wrf.F reading 0d real tsk_force
 date 2023-01-01_00:00:00
 ds            1           1           1
 de            1           1           1
 ps            1           1           1
 pe            1           1           1
 ms            1           1           1
 me            1           1           1
 input_wrf.F reading 0d real tsk_force Status =            0
input_wrf.F reading 0d real hfx_force_tend
 date 2023-01-01_00:00:00
 ds            1           1           1
 de            1           1           1
 ps            1           1           1
 pe            1           1           1
 ms            1           1           1
 me            1           1           1
 input_wrf.F reading 0d real hfx_force_tend Status =            0
input_wrf.F reading 0d real lh_force_tend
 date 2023-01-01_00:00:00
 ds            1           1           1
 de            1           1           1
 ps            1           1           1
 pe            1           1           1
 ms            1           1           1
 me            1           1           1
 input_wrf.F reading 0d real lh_force_tend Status =            0
input_wrf.F reading 0d real tsk_force_tend
 date 2023-01-01_00:00:00
 ds            1           1           1
 de            1           1           1
 ps            1           1           1
 pe            1           1           1
 ms            1           1           1
 me            1           1           1
 input_wrf.F reading 0d real tsk_force_tend Status =            0
input_wrf.F reading 2d real mu_1
 date 2023-01-01_00:00:00
 ds            1           1           1
 de          444         420           1
 ps            1           1           1
 pe           45          21           1
 ms           -4          -4           1
 me           52          28           1
 input_wrf.F reading 2d real mu_1 Status =            0
input_wrf.F reading 2d real mu_2
 date 2023-01-01_00:00:00
 ds            1           1           1
 de          444         420           1
 ps            1           1           1
 pe           45          21           1
 ms           -4          -4           1
 me           52          28           1
 input_wrf.F reading 2d real mu_2 Status =            0
input_wrf.F reading 2d real mub
 date 2023-01-01_00:00:00
 ds            1           1           1
 de          444         420           1
 ps            1           1           1
 pe           45          21           1
 ms           -4          -4           1
 me           52          28           1
 input_wrf.F reading 2d real mub Status =            0
input_wrf.F reading 2d real nest_pos
 date 2023-01-01_00:00:00
 ds            1           1           1
 de          444         420           1
 ps            1           1           1
 pe           45          21           1
 ms           -4          -4           1
 me           52          28           1
 input_wrf.F reading 2d real nest_pos Status =            0
input_wrf.F reading 2d real nest_mask
 date 2023-01-01_00:00:00
 ds            1           1           1
 de          444         420           1
 ps            1           1           1
 pe           45          21           1
 ms           -4          -4           1
 me           52          28           1
 input_wrf.F reading 2d real nest_mask Status =            0
input_wrf.F reading 2d real ht_coarse
 date 2023-01-01_00:00:00
 ds            1           1           1
 de          444         420           1
 ps            1           1           1
 pe           45          21           1
 ms           -4          -4           1
 me           52          28           1
 input_wrf.F reading 2d real ht_coarse Status =            0
input_wrf.F reading 3d real tke_1
 date 2023-01-01_00:00:00
 ds            1           1           1
 de          444          35         420
 ps            1           1           1
 pe           45          35          21
 ms           -4           1          -4
 me           52          36          28
 input_wrf.F reading 3d real tke_1 Status =            0
input_wrf.F reading 3d real tke_2
 date 2023-01-01_00:00:00
 ds            1           1           1
 de          444          35         420
 ps            1           1           1
 pe           45          35          21
 ms           -4           1          -4
 me           52          36          28
 input_wrf.F reading 3d real tke_2 Status =            0
input_wrf.F reading 3d real p
 date 2023-01-01_00:00:00
 ds            1           1           1
 de          444          35         420
 ps            1           1           1
 pe           45          35          21
 ms           -4           1          -4
 me           52          36          28
 input_wrf.F reading 3d real p Status =            0
input_wrf.F reading 3d real al
 date 2023-01-01_00:00:00
 ds            1           1           1
 de          444          35         420
 ps            1           1           1
 pe           45          35          21
 ms           -4           1          -4
 me           52          36          28
 input_wrf.F reading 3d real al Status =            0
input_wrf.F reading 3d real alt
 date 2023-01-01_00:00:00
 ds            1           1           1
 de          444          35         420
 ps            1           1           1
 pe           45          35          21
 ms           -4           1          -4
 me           52          36          28
 input_wrf.F reading 3d real alt Status =            0
input_wrf.F reading 3d real alb
 date 2023-01-01_00:00:00
 ds            1           1           1
 de          444          35         420
 ps            1           1           1
 pe           45          35          21
 ms           -4           1          -4
 me           52          36          28
 input_wrf.F reading 3d real alb Status =            0
input_wrf.F reading 3d real pb
 date 2023-01-01_00:00:00
 ds            1           1           1
 de          444          35         420
 ps            1           1           1
 pe           45          35          21
 ms           -4           1          -4
 me           52          36          28
 input_wrf.F reading 3d real pb Status =            0
input_wrf.F reading 3d real rho
 date 2023-01-01_00:00:00
 ds            1           1           1
 de          444          35         420
 ps            1           1           1
 pe           45          35          21
 ms           -4           1          -4
 me           52          36          28
 input_wrf.F reading 3d real rho Status =            0
input_wrf.F reading 1d real fnm
 date 2023-01-01_00:00:00
 ds            1           1           1
 de           35           1           1
 ps            1           1           1
 pe           35           1           1
 ms            1           1           1
 me           36           1           1
 input_wrf.F reading 1d real fnm Status =            0
input_wrf.F reading 1d real fnp
 date 2023-01-01_00:00:00
 ds            1           1           1
 de           35           1           1
 ps            1           1           1
 pe           35           1           1
 ms            1           1           1
 me           36           1           1
 input_wrf.F reading 1d real fnp Status =            0
input_wrf.F reading 1d real rdnw
 date 2023-01-01_00:00:00
 ds            1           1           1
 de           35           1           1
 ps            1           1           1
 pe           35           1           1
 ms            1           1           1
 me           36           1           1
 input_wrf.F reading 1d real rdnw Status =            0
input_wrf.F reading 1d real rdn
 date 2023-01-01_00:00:00
 ds            1           1           1
 de           35           1           1
 ps            1           1           1
 pe           35           1           1
 ms            1           1           1
 me           36           1           1
 input_wrf.F reading 1d real rdn Status =            0
input_wrf.F reading 1d real dnw
 date 2023-01-01_00:00:00
 ds            1           1           1
 de           35           1           1
 ps            1           1           1
 pe           35           1           1
 ms            1           1           1
 me           36           1           1
 input_wrf.F reading 1d real dnw Status =            0
input_wrf.F reading 1d real dn
 date 2023-01-01_00:00:00
 ds            1           1           1
 de           35           1           1
 ps            1           1           1
 pe           35           1           1
 ms            1           1           1
 me           36           1           1
 input_wrf.F reading 1d real dn Status =            0
input_wrf.F reading 1d real t_base
 date 2023-01-01_00:00:00
 ds            1           1           1
 de           35           1           1
 ps            1           1           1
 pe           35           1           1
 ms            1           1           1
 me           36           1           1
 input_wrf.F reading 1d real t_base Status =            0
input_wrf.F reading 0d real cfn
 date 2023-01-01_00:00:00
 ds            1           1           1
 de            1           1           1
 ps            1           1           1
 pe            1           1           1
 ms            1           1           1
 me            1           1           1
 input_wrf.F reading 0d real cfn Status =            0
input_wrf.F reading 0d real cfn1
 date 2023-01-01_00:00:00
 ds            1           1           1
 de            1           1           1
 ps            1           1           1
 pe            1           1           1
 ms            1           1           1
 me            1           1           1
 input_wrf.F reading 0d real cfn1 Status =            0
input_wrf.F reading 0d integer step_number
 date 2023-01-01_00:00:00
 ds            1           1           1
 de            1           1           1
 ps            1           1           1
 pe            1           1           1
 ms            1           1           1
 me            1           1           1
 input_wrf.F reading 0d integer step_number Status =            0
input_wrf.F reading 0d logical this_is_an_ideal_run
 date 2023-01-01_00:00:00
 ds            1           1           1
 de            1           1           1
 ps            1           1           1
 pe            1           1           1
 ms            1           1           1
 me            1           1           1
 input_wrf.F reading 0d logical this_is_an_ideal_run Status =            0
input_wrf.F reading 0d logical stepping_to_time
 date 2023-01-01_00:00:00
 ds            1           1           1
 de            1           1           1
 ps            1           1           1
 pe            1           1           1
 ms            1           1           1
 me            1           1           1
 input_wrf.F reading 0d logical stepping_to_time Status =            0
input_wrf.F reading 0d integer last_step_updated
 date 2023-01-01_00:00:00
 ds            1           1           1
 de            1           1           1
 ps            1           1           1
 pe            1           1           1
 ms            1           1           1
 me            1           1           1
 input_wrf.F reading 0d integer last_step_updated Status =            0
input_wrf.F reading 0d logical adapt_step_using_child
 date 2023-01-01_00:00:00
 ds            1           1           1
 de            1           1           1
 ps            1           1           1
 pe            1           1           1
 ms            1           1           1
 me            1           1           1
 input_wrf.F reading 0d logical adapt_step_using_child Status =            0
input_wrf.F reading 0d integer last_dt_sec
 date 2023-01-01_00:00:00
 ds            1           1           1
 de            1           1           1
 ps            1           1           1
 pe            1           1           1
 ms            1           1           1
 me            1           1           1
 input_wrf.F reading 0d integer last_dt_sec Status =            0
input_wrf.F reading 0d integer last_dt_sec_num
 date 2023-01-01_00:00:00
 ds            1           1           1
 de            1           1           1
 ps            1           1           1
 pe            1           1           1
 ms            1           1           1
 me            1           1           1
 input_wrf.F reading 0d integer last_dt_sec_num Status =            0
input_wrf.F reading 0d integer last_dt_sec_den
 date 2023-01-01_00:00:00
 ds            1           1           1
 de            1           1           1
 ps            1           1           1
 pe            1           1           1
 ms            1           1           1
 me            1           1           1
 input_wrf.F reading 0d integer last_dt_sec_den Status =            0
input_wrf.F reading 0d integer last_dt_yr
 date 2023-01-01_00:00:00
 ds            1           1           1
 de            1           1           1
 ps            1           1           1
 pe            1           1           1
 ms            1           1           1
 me            1           1           1
 input_wrf.F reading 0d integer last_dt_yr Status =            0
input_wrf.F reading 0d integer last_dt_mm
 date 2023-01-01_00:00:00
 ds            1           1           1
 de            1           1           1
 ps            1           1           1
 pe            1           1           1
 ms            1           1           1
 me            1           1           1
 input_wrf.F reading 0d integer last_dt_mm Status =            0
input_wrf.F reading 3d real p_hyd
 date 2023-01-01_00:00:00
 ds            1           1           1
 de          444          35         420
 ps            1           1           1
 pe           45          35          21
 ms           -4           1          -4
 me           52          36          28
 input_wrf.F reading 3d real p_hyd Status =            0
input_wrf.F reading 3d real p_hyd_w
 date 2023-01-01_00:00:00
 ds            1           1           1
 de          444          36         420
 ps            1           1           1
 pe           45          36          21
 ms           -4           1          -4
 me           52          36          28
 input_wrf.F reading 3d real p_hyd_w Status =            0
input_wrf.F reading 2d real q2
 date 2023-01-01_00:00:00
 ds            1           1           1
 de          444         420           1
 ps            1           1           1
 pe           45          21           1
 ms           -4          -4           1
 me           52          28           1
 input_wrf.F reading 2d real q2 Status =            0
input_wrf.F reading 2d real t2
 date 2023-01-01_00:00:00
 ds            1           1           1
 de          444         420           1
 ps            1           1           1
 pe           45          21           1
 ms           -4          -4           1
 me           52          28           1
 input_wrf.F reading 2d real t2 Status =            0
input_wrf.F reading 2d real th2
 date 2023-01-01_00:00:00
 ds            1           1           1
 de          444         420           1
 ps            1           1           1
 pe           45          21           1
 ms           -4          -4           1
 me           52          28           1
 input_wrf.F reading 2d real th2 Status =            0
input_wrf.F reading 2d real psfc
 date 2023-01-01_00:00:00
 ds            1           1           1
 de          444         420           1
 ps            1           1           1
 pe           45          21           1
 ms           -4          -4           1
 me           52          28           1
 input_wrf.F reading 2d real psfc Status =            0
input_wrf.F reading 2d real u10
 date 2023-01-01_00:00:00
 ds            1           1           1
 de          444         420           1
 ps            1           1           1
 pe           45          21           1
 ms           -4          -4           1
 me           52          28           1
 input_wrf.F reading 2d real u10 Status =            0
input_wrf.F reading 2d real v10
 date 2023-01-01_00:00:00
 ds            1           1           1
 de          444         420           1
 ps            1           1           1
 pe           45          21           1
 ms           -4          -4           1
 me           52          28           1
 input_wrf.F reading 2d real v10 Status =            0
input_wrf.F reading 2d real uratx
 date 2023-01-01_00:00:00
 ds            1           1           1
 de          444         420           1
 ps            1           1           1
 pe           45          21           1
 ms           -4          -4           1
 me           52          28           1
 input_wrf.F reading 2d real uratx Status =            0
input_wrf.F reading 2d real vratx
 date 2023-01-01_00:00:00
 ds            1           1           1
 de          444         420           1
 ps            1           1           1
 pe           45          21           1
 ms           -4          -4           1
 me           52          28           1
 input_wrf.F reading 2d real vratx Status =            0
input_wrf.F reading 2d real tratx
 date 2023-01-01_00:00:00
 ds            1           1           1
 de          444         420           1
 ps            1           1           1
 pe           45          21           1
 ms           -4          -4           1
 me           52          28           1
 input_wrf.F reading 2d real tratx Status =            0
input_wrf.F reading 0d real rdx
 date 2023-01-01_00:00:00
 ds            1           1           1
 de            1           1           1
 ps            1           1           1
 pe            1           1           1
 ms            1           1           1
 me            1           1           1
 input_wrf.F reading 0d real rdx Status =            0
input_wrf.F reading 0d real rdy
 date 2023-01-01_00:00:00
 ds            1           1           1
 de            1           1           1
 ps            1           1           1
 pe            1           1           1
 ms            1           1           1
 me            1           1           1
 input_wrf.F reading 0d real rdy Status =            0
input_wrf.F reading 2d real area2d
 date 2023-01-01_00:00:00
 ds            1           1           1
 de          444         420           1
 ps            1           1           1
 pe           45          21           1
 ms           -4          -4           1
 me           52          28           1
 input_wrf.F reading 2d real area2d Status =            0
input_wrf.F reading 2d real dx2d
 date 2023-01-01_00:00:00
 ds            1           1           1
 de          444         420           1
 ps            1           1           1
 pe           45          21           1
 ms           -4          -4           1
 me           52          28           1
 input_wrf.F reading 2d real dx2d Status =            0
input_wrf.F reading 0d real dts
 date 2023-01-01_00:00:00
 ds            1           1           1
 de            1           1           1
 ps            1           1           1
 pe            1           1           1
 ms            1           1           1
 me            1           1           1
 input_wrf.F reading 0d real dts Status =            0
input_wrf.F reading 0d real dtseps
 date 2023-01-01_00:00:00
 ds            1           1           1
 de            1           1           1
 ps            1           1           1
 pe            1           1           1
 ms            1           1           1
 me            1           1           1
 input_wrf.F reading 0d real dtseps Status =            0
input_wrf.F reading 0d real resm
 date 2023-01-01_00:00:00
 ds            1           1           1
 de            1           1           1
 ps            1           1           1
 pe            1           1           1
 ms            1           1           1
 me            1           1           1
 input_wrf.F reading 0d real resm Status =            0
input_wrf.F reading 0d real zetatop
 date 2023-01-01_00:00:00
 ds            1           1           1
 de            1           1           1
 ps            1           1           1
 pe            1           1           1
 ms            1           1           1
 me            1           1           1
 input_wrf.F reading 0d real zetatop Status =            0
input_wrf.F reading 0d real cf1
 date 2023-01-01_00:00:00
 ds            1           1           1
 de            1           1           1
 ps            1           1           1
 pe            1           1           1
 ms            1           1           1
 me            1           1           1
 input_wrf.F reading 0d real cf1 Status =            0
input_wrf.F reading 0d real cf2
 date 2023-01-01_00:00:00
 ds            1           1           1
 de            1           1           1
 ps            1           1           1
 pe            1           1           1
 ms            1           1           1
 me            1           1           1
 input_wrf.F reading 0d real cf2 Status =            0
input_wrf.F reading 0d real cf3
 date 2023-01-01_00:00:00
 ds            1           1           1
 de            1           1           1
 ps            1           1           1
 pe            1           1           1
 ms            1           1           1
 me            1           1           1
 input_wrf.F reading 0d real cf3 Status =            0
input_wrf.F reading 0d real radtacttime
 date 2023-01-01_00:00:00
 ds            1           1           1
 de            1           1           1
 ps            1           1           1
 pe            1           1           1
 ms            1           1           1
 me            1           1           1
 input_wrf.F reading 0d real radtacttime Status =            0
input_wrf.F reading 0d real bldtacttime
 date 2023-01-01_00:00:00
 ds            1           1           1
 de            1           1           1
 ps            1           1           1
 pe            1           1           1
 ms            1           1           1
 me            1           1           1
 input_wrf.F reading 0d real bldtacttime Status =            0
input_wrf.F reading 0d real cudtacttime
 date 2023-01-01_00:00:00
 ds            1           1           1
 de            1           1           1
 ps            1           1           1
 pe            1           1           1
 ms            1           1           1
 me            1           1           1
 input_wrf.F reading 0d real cudtacttime Status =            0
input_wrf.F reading 0d real ltngacttime
 date 2023-01-01_00:00:00
 ds            1           1           1
 de            1           1           1
 ps            1           1           1
 pe            1           1           1
 ms            1           1           1
 me            1           1           1
 input_wrf.F reading 0d real ltngacttime Status =            0
input_wrf.F reading 0d integer itimestep
 date 2023-01-01_00:00:00
 ds            1           1           1
 de            1           1           1
 ps            1           1           1
 pe            1           1           1
 ms            1           1           1
 me            1           1           1
 input_wrf.F reading 0d integer itimestep Status =            0
input_wrf.F reading 0d real xtime
 date 2023-01-01_00:00:00
 ds            1           1           1
 de            1           1           1
 ps            1           1           1
 pe            1           1           1
 ms            1           1           1
 me            1           1           1
 input_wrf.F reading 0d real xtime Status =            0
input_wrf.F reading 0d real xi
 date 2023-01-01_00:00:00
 ds            1           1           1
 de            1           1           1
 ps            1           1           1
 pe            1           1           1
 ms            1           1           1
 me            1           1           1
 input_wrf.F reading 0d real xi Status =            0
input_wrf.F reading 0d real xj
 date 2023-01-01_00:00:00
 ds            1           1           1
 de            1           1           1
 ps            1           1           1
 pe            1           1           1
 ms            1           1           1
 me            1           1           1
 input_wrf.F reading 0d real xj Status =            0
input_wrf.F reading 0d real vc_i
 date 2023-01-01_00:00:00
 ds            1           1           1
 de            1           1           1
 ps            1           1           1
 pe            1           1           1
 ms            1           1           1
 me            1           1           1
 input_wrf.F reading 0d real vc_i Status =            0
input_wrf.F reading 0d real vc_j
 date 2023-01-01_00:00:00
 ds            1           1           1
 de            1           1           1
 ps            1           1           1
 pe            1           1           1
 ms            1           1           1
 me            1           1           1
 input_wrf.F reading 0d real vc_j Status =            0
input_wrf.F reading 4d real QVAPOR
 date 2023-01-01_00:00:00
 ds            1           1           1
 de          444          35         420
 ps            1           1           1
 pe           45          35          21
 ms           -4           1          -4
 me           52          36          28
 input_wrf.F reading 4d real QVAPOR Status =            0
input_wrf.F reading 4d real QCLOUD
 date 2023-01-01_00:00:00
 ds            1           1           1
 de          444          35         420
 ps            1           1           1
 pe           45          35          21
 ms           -4           1          -4
 me           52          36          28
 input_wrf.F reading 4d real QCLOUD Status =            0
input_wrf.F reading 4d real QRAIN
 date 2023-01-01_00:00:00
 ds            1           1           1
 de          444          35         420
 ps            1           1           1
 pe           45          35          21
 ms           -4           1          -4
 me           52          36          28
 input_wrf.F reading 4d real QRAIN Status =            0
input_wrf.F reading 4d real QICE
 date 2023-01-01_00:00:00
 ds            1           1           1
 de          444          35         420
 ps            1           1           1
 pe           45          35          21
 ms           -4           1          -4
 me           52          36          28
 input_wrf.F reading 4d real QICE Status =            0
input_wrf.F reading 4d real QSNOW
 date 2023-01-01_00:00:00
 ds            1           1           1
 de          444          35         420
 ps            1           1           1
 pe           45          35          21
 ms           -4           1          -4
 me           52          36          28
 input_wrf.F reading 4d real QSNOW Status =            0
input_wrf.F reading 4d real QGRAUP
 date 2023-01-01_00:00:00
 ds            1           1           1
 de          444          35         420
 ps            1           1           1
 pe           45          35          21
 ms           -4           1          -4
 me           52          36          28
 input_wrf.F reading 4d real QGRAUP Status =            0
input_wrf.F reading 3d real qvold
 date 2023-01-01_00:00:00
 ds            1           1           1
 de          444          35         420
 ps            1           1           1
 pe           45          35          21
 ms           -4           1          -4
 me           52          36          28
 input_wrf.F reading 3d real qvold Status =            0
input_wrf.F reading 0d integer has_reqc
 date 2023-01-01_00:00:00
 ds            1           1           1
 de            1           1           1
 ps            1           1           1
 pe            1           1           1
 ms            1           1           1
 me            1           1           1
 input_wrf.F reading 0d integer has_reqc Status =            0
input_wrf.F reading 0d integer has_reqi
 date 2023-01-01_00:00:00
 ds            1           1           1
 de            1           1           1
 ps            1           1           1
 pe            1           1           1
 ms            1           1           1
 me            1           1           1
 input_wrf.F reading 0d integer has_reqi Status =            0
input_wrf.F reading 0d integer has_reqs
 date 2023-01-01_00:00:00
 ds            1           1           1
 de            1           1           1
 ps            1           1           1
 pe            1           1           1
 ms            1           1           1
 me            1           1           1
 input_wrf.F reading 0d integer has_reqs Status =            0
input_wrf.F reading 4d real QNICE
 date 2023-01-01_00:00:00
 ds            1           1           1
 de          444          35         420
 ps            1           1           1
 pe           45          35          21
 ms           -4           1          -4
 me           52          36          28
 input_wrf.F reading 4d real QNICE Status =            0
input_wrf.F reading 4d real QNSNOW
 date 2023-01-01_00:00:00
 ds            1           1           1
 de          444          35         420
 ps            1           1           1
 pe           45          35          21
 ms           -4           1          -4
 me           52          36          28
 input_wrf.F reading 4d real QNSNOW Status =            0
input_wrf.F reading 4d real QNRAIN
 date 2023-01-01_00:00:00
 ds            1           1           1
 de          444          35         420
 ps            1           1           1
 pe           45          35          21
 ms           -4           1          -4
 me           52          36          28
 input_wrf.F reading 4d real QNRAIN Status =            0
input_wrf.F reading 4d real QNGRAUPEL
 date 2023-01-01_00:00:00
 ds            1           1           1
 de          444          35         420
 ps            1           1           1
 pe           45          35          21
 ms           -4           1          -4
 me           52          36          28
 input_wrf.F reading 4d real QNGRAUPEL Status =            0
input_wrf.F reading 1d real fcx
 date 2023-01-01_00:00:00
 ds            1           1           1
 de            1           1           1
 ps            1           1           1
 pe            1           1           1
 ms            1           1           1
 me            1           1           1
 input_wrf.F reading 1d real fcx Status =            0
input_wrf.F reading 1d real gcx
 date 2023-01-01_00:00:00
 ds            1           1           1
 de            1           1           1
 ps            1           1           1
 pe            1           1           1
 ms            1           1           1
 me            1           1           1
 input_wrf.F reading 1d real gcx Status =            0
input_wrf.F reading 0d real dtbc
 date 2023-01-01_00:00:00
 ds            1           1           1
 de            1           1           1
 ps            1           1           1
 pe            1           1           1
 ms            1           1           1
 me            1           1           1
 input_wrf.F reading 0d real dtbc Status =            0
input_wrf.F reading 2d real toposlpx
 date 2023-01-01_00:00:00
 ds            1           1           1
 de          444         420           1
 ps            1           1           1
 pe           45          21           1
 ms           -4          -4           1
 me           52          28           1
 input_wrf.F reading 2d real toposlpx Status =            0
input_wrf.F reading 2d real toposlpy
 date 2023-01-01_00:00:00
 ds            1           1           1
 de          444         420           1
 ps            1           1           1
 pe           45          21           1
 ms           -4          -4           1
 me           52          28           1
 input_wrf.F reading 2d real toposlpy Status =            0
input_wrf.F reading 2d real slope
 date 2023-01-01_00:00:00
 ds            1           1           1
 de          444         420           1
 ps            1           1           1
 pe           45          21           1
 ms           -4          -4           1
 me           52          28           1
 input_wrf.F reading 2d real slope Status =            0
input_wrf.F reading 2d real slp_azi
 date 2023-01-01_00:00:00
 ds            1           1           1
 de          444         420           1
 ps            1           1           1
 pe           45          21           1
 ms           -4          -4           1
 me           52          28           1
 input_wrf.F reading 2d real slp_azi Status =            0
input_wrf.F reading 2d real shdmax
 date 2023-01-01_00:00:00
 ds            1           1           1
 de          444         420           1
 ps            1           1           1
 pe           45          21           1
 ms           -4          -4           1
 me           52          28           1
 input_wrf.F reading 2d real shdmax Status =            0
input_wrf.F reading 2d real shdmin
 date 2023-01-01_00:00:00
 ds            1           1           1
 de          444         420           1
 ps            1           1           1
 pe           45          21           1
 ms           -4          -4           1
 me           52          28           1
 input_wrf.F reading 2d real shdmin Status =            0
input_wrf.F reading 2d real snoalb
 date 2023-01-01_00:00:00
 ds            1           1           1
 de          444         420           1
 ps            1           1           1
 pe           45          21           1
 ms           -4          -4           1
 me           52          28           1
 input_wrf.F reading 2d real snoalb Status =            0
input_wrf.F reading 3d real landusef
 date 2023-01-01_00:00:00
 ds            1           1           1
 de          444          40         420
 ps            1           1           1
 pe           45          40          21
 ms           -4           1          -4
 me           52          40          28
 input_wrf.F reading 3d real landusef Status =            0
input_wrf.F reading 3d real soilctop
 date 2023-01-01_00:00:00
 ds            1           1           1
 de          444          16         420
 ps            1           1           1
 pe           45          16          21
 ms           -4           1          -4
 me           52          16          28
 input_wrf.F reading 3d real soilctop Status =            0
input_wrf.F reading 3d real soilcbot
 date 2023-01-01_00:00:00
 ds            1           1           1
 de          444          16         420
 ps            1           1           1
 pe           45          16          21
 ms           -4           1          -4
 me           52          16          28
 input_wrf.F reading 3d real soilcbot Status =            0
input_wrf.F reading 3d real tslb
 date 2023-01-01_00:00:00
 ds            1           1           1
 de          444           2         420
 ps            1           1           1
 pe           45           2          21
 ms           -4           1          -4
 me           52           2          28
 input_wrf.F reading 3d real tslb Status =            0
input_wrf.F reading 1d real dzr
 date 2023-01-01_00:00:00
 ds            1           1           1
 de            2           1           1
 ps            1           1           1
 pe            2           1           1
 ms            1           1           1
 me            2           1           1
 input_wrf.F reading 1d real dzr Status =            0
input_wrf.F reading 1d real dzb
 date 2023-01-01_00:00:00
 ds            1           1           1
 de            2           1           1
 ps            1           1           1
 pe            2           1           1
 ms            1           1           1
 me            2           1           1
 input_wrf.F reading 1d real dzb Status =            0
input_wrf.F reading 1d real dzg
 date 2023-01-01_00:00:00
 ds            1           1           1
 de            2           1           1
 ps            1           1           1
 pe            2           1           1
 ms            1           1           1
 me            2           1           1
 input_wrf.F reading 1d real dzg Status =            0
input_wrf.F reading 3d real smois
 date 2023-01-01_00:00:00
 ds            1           1           1
 de          444           2         420
 ps            1           1           1
 pe           45           2          21
 ms           -4           1          -4
 me           52           2          28
 input_wrf.F reading 3d real smois Status =            0
input_wrf.F reading 3d real sh2o
 date 2023-01-01_00:00:00
 ds            1           1           1
 de          444           2         420
 ps            1           1           1
 pe           45           2          21
 ms           -4           1          -4
 me           52           2          28
 input_wrf.F reading 3d real sh2o Status =            0
input_wrf.F reading 2d real xice
 date 2023-01-01_00:00:00
 ds            1           1           1
 de          444         420           1
 ps            1           1           1
 pe           45          21           1
 ms           -4          -4           1
 me           52          28           1
 input_wrf.F reading 2d real xice Status =            0
input_wrf.F reading 2d real xicem
 date 2023-01-01_00:00:00
 ds            1           1           1
 de          444         420           1
 ps            1           1           1
 pe           45          21           1
 ms           -4          -4           1
 me           52          28           1
 input_wrf.F reading 2d real xicem Status =            0
input_wrf.F reading 2d real smstav
 date 2023-01-01_00:00:00
 ds            1           1           1
 de          444         420           1
 ps            1           1           1
 pe           45          21           1
 ms           -4          -4           1
 me           52          28           1
 input_wrf.F reading 2d real smstav Status =            0
input_wrf.F reading 2d real smstot
 date 2023-01-01_00:00:00
 ds            1           1           1
 de          444         420           1
 ps            1           1           1
 pe           45          21           1
 ms           -4          -4           1
 me           52          28           1
 input_wrf.F reading 2d real smstot Status =            0
input_wrf.F reading 2d real sfcrunoff
 date 2023-01-01_00:00:00
 ds            1           1           1
 de          444         420           1
 ps            1           1           1
 pe           45          21           1
 ms           -4          -4           1
 me           52          28           1
 input_wrf.F reading 2d real sfcrunoff Status =            0
input_wrf.F reading 2d real udrunoff
 date 2023-01-01_00:00:00
 ds            1           1           1
 de          444         420           1
 ps            1           1           1
 pe           45          21           1
 ms           -4          -4           1
 me           52          28           1
 input_wrf.F reading 2d real udrunoff Status =            0
input_wrf.F reading 2d integer ivgtyp
 date 2023-01-01_00:00:00
 ds            1           1           1
 de          444         420           1
 ps            1           1           1
 pe           45          21           1
 ms           -4          -4           1
 me           52          28           1
 input_wrf.F reading 2d integer ivgtyp Status =            0
input_wrf.F reading 2d integer isltyp
 date 2023-01-01_00:00:00
 ds            1           1           1
 de          444         420           1
 ps            1           1           1
 pe           45          21           1
 ms           -4          -4           1
 me           52          28           1
 input_wrf.F reading 2d integer isltyp Status =            0
input_wrf.F reading 2d real vegfra
 date 2023-01-01_00:00:00
 ds            1           1           1
 de          444         420           1
 ps            1           1           1
 pe           45          21           1
 ms           -4          -4           1
 me           52          28           1
 input_wrf.F reading 2d real vegfra Status =            0
input_wrf.F reading 2d real sfcevp
 date 2023-01-01_00:00:00
 ds            1           1           1
 de          444         420           1
 ps            1           1           1
 pe           45          21           1
 ms           -4          -4           1
 me           52          28           1
 input_wrf.F reading 2d real sfcevp Status =            0
input_wrf.F reading 2d real grdflx
 date 2023-01-01_00:00:00
 ds            1           1           1
 de          444         420           1
 ps            1           1           1
 pe           45          21           1
 ms           -4          -4           1
 me           52          28           1
 input_wrf.F reading 2d real grdflx Status =            0
input_wrf.F reading 2d real acgrdflx
 date 2023-01-01_00:00:00
 ds            1           1           1
 de          444         420           1
 ps            1           1           1
 pe           45          21           1
 ms           -4          -4           1
 me           52          28           1
 input_wrf.F reading 2d real acgrdflx Status =            0
input_wrf.F reading 2d real sfcexc
 date 2023-01-01_00:00:00
 ds            1           1           1
 de          444         420           1
 ps            1           1           1
 pe           45          21           1
 ms           -4          -4           1
 me           52          28           1
 input_wrf.F reading 2d real sfcexc Status =            0
input_wrf.F reading 2d real acsnow
 date 2023-01-01_00:00:00
 ds            1           1           1
 de          444         420           1
 ps            1           1           1
 pe           45          21           1
 ms           -4          -4           1
 me           52          28           1
 input_wrf.F reading 2d real acsnow Status =            0
input_wrf.F reading 2d real acsnom
 date 2023-01-01_00:00:00
 ds            1           1           1
 de          444         420           1
 ps            1           1           1
 pe           45          21           1
 ms           -4          -4           1
 me           52          28           1
 input_wrf.F reading 2d real acsnom Status =            0
input_wrf.F reading 2d real snow
 date 2023-01-01_00:00:00
 ds            1           1           1
 de          444         420           1
 ps            1           1           1
 pe           45          21           1
 ms           -4          -4           1
 me           52          28           1
 input_wrf.F reading 2d real snow Status =            0
input_wrf.F reading 2d real snowh
 date 2023-01-01_00:00:00
 ds            1           1           1
 de          444         420           1
 ps            1           1           1
 pe           45          21           1
 ms           -4          -4           1
 me           52          28           1
 input_wrf.F reading 2d real snowh Status =            0
input_wrf.F reading 2d real canwat
 date 2023-01-01_00:00:00
 ds            1           1           1
 de          444         420           1
 ps            1           1           1
 pe           45          21           1
 ms           -4          -4           1
 me           52          28           1
 input_wrf.F reading 2d real canwat Status =            0
input_wrf.F reading 0d integer ifndalbsi
 date 2023-01-01_00:00:00
 ds            1           1           1
 de            1           1           1
 ps            1           1           1
 pe            1           1           1
 ms            1           1           1
 me            1           1           1
 input_wrf.F reading 0d integer ifndalbsi Status =            0
input_wrf.F reading 0d integer ifndsnowsi
 date 2023-01-01_00:00:00
 ds            1           1           1
 de            1           1           1
 ps            1           1           1
 pe            1           1           1
 ms            1           1           1
 me            1           1           1
 input_wrf.F reading 0d integer ifndsnowsi Status =            0
input_wrf.F reading 0d integer ifndicedepth
 date 2023-01-01_00:00:00
 ds            1           1           1
 de            1           1           1
 ps            1           1           1
 pe            1           1           1
 ms            1           1           1
 me            1           1           1
 input_wrf.F reading 0d integer ifndicedepth Status =            0
input_wrf.F reading 2d real sstsk
 date 2023-01-01_00:00:00
 ds            1           1           1
 de          444         420           1
 ps            1           1           1
 pe           45          21           1
 ms           -4          -4           1
 me           52          28           1
 input_wrf.F reading 2d real sstsk Status =            0
input_wrf.F reading 2d real lake_depth
 date 2023-01-01_00:00:00
 ds            1           1           1
 de          444         420           1
 ps            1           1           1
 pe           45          21           1
 ms           -4          -4           1
 me           52          28           1
 input_wrf.F reading 2d real lake_depth Status =            0
input_wrf.F reading 2d real water_depth
 date 2023-01-01_00:00:00
 ds            1           1           1
 de          444         420           1
 ps            1           1           1
 pe           45          21           1
 ms           -4          -4           1
 me           52          28           1
 input_wrf.F reading 2d real water_depth Status =            0
input_wrf.F reading 2d real dtw
 date 2023-01-01_00:00:00
 ds            1           1           1
 de          444         420           1
 ps            1           1           1
 pe           45          21           1
 ms           -4          -4           1
 me           52          28           1
 input_wrf.F reading 2d real dtw Status =            0
input_wrf.F reading 2d real uoce
 date 2023-01-01_00:00:00
 ds            1           1           1
 de          444         420           1
 ps            1           1           1
 pe           45          21           1
 ms           -4          -4           1
 me           52          28           1
 input_wrf.F reading 2d real uoce Status =            0
input_wrf.F reading 2d real voce
 date 2023-01-01_00:00:00
 ds            1           1           1
 de          444         420           1
 ps            1           1           1
 pe           45          21           1
 ms           -4          -4           1
 me           52          28           1
 input_wrf.F reading 2d real voce Status =            0
input_wrf.F reading 2d real tr_urb2d
 date 2023-01-01_00:00:00
 ds            1           1           1
 de          444         420           1
 ps            1           1           1
 pe           45          21           1
 ms           -4          -4           1
 me           52          28           1
 input_wrf.F reading 2d real tr_urb2d Status =            0
input_wrf.F reading 2d real tb_urb2d
 date 2023-01-01_00:00:00
 ds            1           1           1
 de          444         420           1
 ps            1           1           1
 pe           45          21           1
 ms           -4          -4           1
 me           52          28           1
 input_wrf.F reading 2d real tb_urb2d Status =            0
input_wrf.F reading 2d real tg_urb2d
 date 2023-01-01_00:00:00
 ds            1           1           1
 de          444         420           1
 ps            1           1           1
 pe           45          21           1
 ms           -4          -4           1
 me           52          28           1
 input_wrf.F reading 2d real tg_urb2d Status =            0
input_wrf.F reading 2d real tc_urb2d
 date 2023-01-01_00:00:00
 ds            1           1           1
 de          444         420           1
 ps            1           1           1
 pe           45          21           1
 ms           -4          -4           1
 me           52          28           1
 input_wrf.F reading 2d real tc_urb2d Status =            0
input_wrf.F reading 2d real qc_urb2d
 date 2023-01-01_00:00:00
 ds            1           1           1
 de          444         420           1
 ps            1           1           1
 pe           45          21           1
 ms           -4          -4           1
 me           52          28           1
 input_wrf.F reading 2d real qc_urb2d Status =            0
input_wrf.F reading 2d real uc_urb2d
 date 2023-01-01_00:00:00
 ds            1           1           1
 de          444         420           1
 ps            1           1           1
 pe           45          21           1
 ms           -4          -4           1
 me           52          28           1
 input_wrf.F reading 2d real uc_urb2d Status =            0
input_wrf.F reading 2d real xxxr_urb2d
 date 2023-01-01_00:00:00
 ds            1           1           1
 de          444         420           1
 ps            1           1           1
 pe           45          21           1
 ms           -4          -4           1
 me           52          28           1
 input_wrf.F reading 2d real xxxr_urb2d Status =            0
input_wrf.F reading 2d real xxxb_urb2d
 date 2023-01-01_00:00:00
 ds            1           1           1
 de          444         420           1
 ps            1           1           1
 pe           45          21           1
 ms           -4          -4           1
 me           52          28           1
 input_wrf.F reading 2d real xxxb_urb2d Status =            0
input_wrf.F reading 2d real xxxg_urb2d
 date 2023-01-01_00:00:00
 ds            1           1           1
 de          444         420           1
 ps            1           1           1
 pe           45          21           1
 ms           -4          -4           1
 me           52          28           1
 input_wrf.F reading 2d real xxxg_urb2d Status =            0
input_wrf.F reading 2d real xxxc_urb2d
 date 2023-01-01_00:00:00
 ds            1           1           1
 de          444         420           1
 ps            1           1           1
 pe           45          21           1
 ms           -4          -4           1
 me           52          28           1
 input_wrf.F reading 2d real xxxc_urb2d Status =            0
input_wrf.F reading 2d real sh_urb2d
 date 2023-01-01_00:00:00
 ds            1           1           1
 de          444         420           1
 ps            1           1           1
 pe           45          21           1
 ms           -4          -4           1
 me           52          28           1
 input_wrf.F reading 2d real sh_urb2d Status =            0
input_wrf.F reading 2d real lh_urb2d
 date 2023-01-01_00:00:00
 ds            1           1           1
 de          444         420           1
 ps            1           1           1
 pe           45          21           1
 ms           -4          -4           1
 me           52          28           1
 input_wrf.F reading 2d real lh_urb2d Status =            0
input_wrf.F reading 2d real g_urb2d
 date 2023-01-01_00:00:00
 ds            1           1           1
 de          444         420           1
 ps            1           1           1
 pe           45          21           1
 ms           -4          -4           1
 me           52          28           1
 input_wrf.F reading 2d real g_urb2d Status =            0
input_wrf.F reading 2d real rn_urb2d
 date 2023-01-01_00:00:00
 ds            1           1           1
 de          444         420           1
 ps            1           1           1
 pe           45          21           1
 ms           -4          -4           1
 me           52          28           1
 input_wrf.F reading 2d real rn_urb2d Status =            0
input_wrf.F reading 2d real ts_urb2d
 date 2023-01-01_00:00:00
 ds            1           1           1
 de          444         420           1
 ps            1           1           1
 pe           45          21           1
 ms           -4          -4           1
 me           52          28           1
 input_wrf.F reading 2d real ts_urb2d Status =            0
input_wrf.F reading 2d real frc_urb2d
 date 2023-01-01_00:00:00
 ds            1           1           1
 de          444         420           1
 ps            1           1           1
 pe           45          21           1
 ms           -4          -4           1
 me           52          28           1
 input_wrf.F reading 2d real frc_urb2d Status =            0
input_wrf.F reading 2d integer utype_urb2d
 date 2023-01-01_00:00:00
 ds            1           1           1
 de          444         420           1
 ps            1           1           1
 pe           45          21           1
 ms           -4          -4           1
 me           52          28           1
 input_wrf.F reading 2d integer utype_urb2d Status =            0
input_wrf.F reading 2d real cmr_sfcdif
 date 2023-01-01_00:00:00
 ds            1           1           1
 de          444         420           1
 ps            1           1           1
 pe           45          21           1
 ms           -4          -4           1
 me           52          28           1
 input_wrf.F reading 2d real cmr_sfcdif Status =            0
input_wrf.F reading 2d real chr_sfcdif
 date 2023-01-01_00:00:00
 ds            1           1           1
 de          444         420           1
 ps            1           1           1
 pe           45          21           1
 ms           -4          -4           1
 me           52          28           1
 input_wrf.F reading 2d real chr_sfcdif Status =            0
input_wrf.F reading 2d real cmc_sfcdif
 date 2023-01-01_00:00:00
 ds            1           1           1
 de          444         420           1
 ps            1           1           1
 pe           45          21           1
 ms           -4          -4           1
 me           52          28           1
 input_wrf.F reading 2d real cmc_sfcdif Status =            0
input_wrf.F reading 2d real chc_sfcdif
 date 2023-01-01_00:00:00
 ds            1           1           1
 de          444         420           1
 ps            1           1           1
 pe           45          21           1
 ms           -4          -4           1
 me           52          28           1
 input_wrf.F reading 2d real chc_sfcdif Status =            0
input_wrf.F reading 2d real coszen
 date 2023-01-01_00:00:00
 ds            1           1           1
 de          444         420           1
 ps            1           1           1
 pe           45          21           1
 ms           -4          -4           1
 me           52          28           1
 input_wrf.F reading 2d real coszen Status =            0
input_wrf.F reading 2d real hrang
 date 2023-01-01_00:00:00
 ds            1           1           1
 de          444         420           1
 ps            1           1           1
 pe           45          21           1
 ms           -4          -4           1
 me           52          28           1
 input_wrf.F reading 2d real hrang Status =            0
input_wrf.F reading 0d real declin
 date 2023-01-01_00:00:00
 ds            1           1           1
 de            1           1           1
 ps            1           1           1
 pe            1           1           1
 ms            1           1           1
 me            1           1           1
 input_wrf.F reading 0d real declin Status =            0
input_wrf.F reading 0d real solcon
 date 2023-01-01_00:00:00
 ds            1           1           1
 de            1           1           1
 ps            1           1           1
 pe            1           1           1
 ms            1           1           1
 me            1           1           1
 input_wrf.F reading 0d real solcon Status =            0
input_wrf.F reading 2d real swvisdir
 date 2023-01-01_00:00:00
 ds            1           1           1
 de          444         420           1
 ps            1           1           1
 pe           45          21           1
 ms           -4          -4           1
 me           52          28           1
 input_wrf.F reading 2d real swvisdir Status =            0
input_wrf.F reading 2d real swvisdif
 date 2023-01-01_00:00:00
 ds            1           1           1
 de          444         420           1
 ps            1           1           1
 pe           45          21           1
 ms           -4          -4           1
 me           52          28           1
 input_wrf.F reading 2d real swvisdif Status =            0
input_wrf.F reading 2d real swnirdir
 date 2023-01-01_00:00:00
 ds            1           1           1
 de          444         420           1
 ps            1           1           1
 pe           45          21           1
 ms           -4          -4           1
 me           52          28           1
 input_wrf.F reading 2d real swnirdir Status =            0
input_wrf.F reading 2d real swnirdif
 date 2023-01-01_00:00:00
 ds            1           1           1
 de          444         420           1
 ps            1           1           1
 pe           45          21           1
 ms           -4          -4           1
 me           52          28           1
 input_wrf.F reading 2d real swnirdif Status =            0
input_wrf.F reading 2d real alswvisdir
 date 2023-01-01_00:00:00
 ds            1           1           1
 de          444         420           1
 ps            1           1           1
 pe           45          21           1
 ms           -4          -4           1
 me           52          28           1
 input_wrf.F reading 2d real alswvisdir Status =            0
input_wrf.F reading 2d real alswvisdif
 date 2023-01-01_00:00:00
 ds            1           1           1
 de          444         420           1
 ps            1           1           1
 pe           45          21           1
 ms           -4          -4           1
 me           52          28           1
 input_wrf.F reading 2d real alswvisdif Status =            0
input_wrf.F reading 2d real alswnirdir
 date 2023-01-01_00:00:00
 ds            1           1           1
 de          444         420           1
 ps            1           1           1
 pe           45          21           1
 ms           -4          -4           1
 me           52          28           1
 input_wrf.F reading 2d real alswnirdir Status =            0
input_wrf.F reading 2d real alswnirdif
 date 2023-01-01_00:00:00
 ds            1           1           1
 de          444         420           1
 ps            1           1           1
 pe           45          21           1
 ms           -4          -4           1
 me           52          28           1
 input_wrf.F reading 2d real alswnirdif Status =            0
input_wrf.F reading 2d real ra
 date 2023-01-01_00:00:00
 ds            1           1           1
 de          444         420           1
 ps            1           1           1
 pe           45          21           1
 ms           -4          -4           1
 me           52          28           1
 input_wrf.F reading 2d real ra Status =            0
input_wrf.F reading 2d real rs
 date 2023-01-01_00:00:00
 ds            1           1           1
 de          444         420           1
 ps            1           1           1
 pe           45          21           1
 ms           -4          -4           1
 me           52          28           1
 input_wrf.F reading 2d real rs Status =            0
input_wrf.F reading 2d real lai
 date 2023-01-01_00:00:00
 ds            1           1           1
 de          444         420           1
 ps            1           1           1
 pe           45          21           1
 ms           -4          -4           1
 me           52          28           1
 input_wrf.F reading 2d real lai Status =            0
input_wrf.F reading 2d real vegf_px
 date 2023-01-01_00:00:00
 ds            1           1           1
 de          444         420           1
 ps            1           1           1
 pe           45          21           1
 ms           -4          -4           1
 me           52          28           1
 input_wrf.F reading 2d real vegf_px Status =            0
input_wrf.F reading 2d real t2obs
 date 2023-01-01_00:00:00
 ds            1           1           1
 de          444         420           1
 ps            1           1           1
 pe           45          21           1
 ms           -4          -4           1
 me           52          28           1
 input_wrf.F reading 2d real t2obs Status =            0
input_wrf.F reading 2d real q2obs
 date 2023-01-01_00:00:00
 ds            1           1           1
 de          444         420           1
 ps            1           1           1
 pe           45          21           1
 ms           -4          -4           1
 me           52          28           1
 input_wrf.F reading 2d real q2obs Status =            0
input_wrf.F reading 2d real imperv
 date 2023-01-01_00:00:00
 ds            1           1           1
 de          444         420           1
 ps            1           1           1
 pe           45          21           1
 ms           -4          -4           1
 me           52          28           1
 input_wrf.F reading 2d real imperv Status =            0
input_wrf.F reading 2d real canfra
 date 2023-01-01_00:00:00
 ds            1           1           1
 de          444         420           1
 ps            1           1           1
 pe           45          21           1
 ms           -4          -4           1
 me           52          28           1
 input_wrf.F reading 2d real canfra Status =            0
input_wrf.F reading 2d real lai_px
 date 2023-01-01_00:00:00
 ds            1           1           1
 de          444         420           1
 ps            1           1           1
 pe           45          21           1
 ms           -4          -4           1
 me           52          28           1
 input_wrf.F reading 2d real lai_px Status =            0
input_wrf.F reading 2d real wwlt_px
 date 2023-01-01_00:00:00
 ds            1           1           1
 de          444         420           1
 ps            1           1           1
 pe           45          21           1
 ms           -4          -4           1
 me           52          28           1
 input_wrf.F reading 2d real wwlt_px Status =            0
input_wrf.F reading 2d real wfc_px
 date 2023-01-01_00:00:00
 ds            1           1           1
 de          444         420           1
 ps            1           1           1
 pe           45          21           1
 ms           -4          -4           1
 me           52          28           1
 input_wrf.F reading 2d real wfc_px Status =            0
input_wrf.F reading 2d real wsat_px
 date 2023-01-01_00:00:00
 ds            1           1           1
 de          444         420           1
 ps            1           1           1
 pe           45          21           1
 ms           -4          -4           1
 me           52          28           1
 input_wrf.F reading 2d real wsat_px Status =            0
input_wrf.F reading 2d real clay_px
 date 2023-01-01_00:00:00
 ds            1           1           1
 de          444         420           1
 ps            1           1           1
 pe           45          21           1
 ms           -4          -4           1
 me           52          28           1
 input_wrf.F reading 2d real clay_px Status =            0
input_wrf.F reading 2d real csand_px
 date 2023-01-01_00:00:00
 ds            1           1           1
 de          444         420           1
 ps            1           1           1
 pe           45          21           1
 ms           -4          -4           1
 me           52          28           1
 input_wrf.F reading 2d real csand_px Status =            0
input_wrf.F reading 2d real fmsand_px
 date 2023-01-01_00:00:00
 ds            1           1           1
[...]
d01 2023-01-01_00:01:20 calling inc/HALO_EM_C_inline.inc
d01 2023-01-01_00:01:20 calling inc/HALO_EM_C2_inline.inc
d01 2023-01-01_00:01:20 calling inc/PERIOD_BDY_EM_B3_inline.inc
d01 2023-01-01_00:01:20 calling inc/PERIOD_BDY_EM_B_inline.inc
d01 2023-01-01_00:01:20 calling inc/HALO_EM_C_inline.inc
d01 2023-01-01_00:01:20 calling inc/HALO_EM_C2_inline.inc
d01 2023-01-01_00:01:20 calling inc/PERIOD_BDY_EM_B3_inline.inc
d01 2023-01-01_00:01:20  call rk_small_finish
d01 2023-01-01_00:01:20  call rk_update_scalar_pd
d01 2023-01-01_00:01:20 calling inc/HALO_EM_MOIST_OLD_E_7_inline.inc
d01 2023-01-01_00:01:20 calling inc/PERIOD_BDY_EM_MOIST_OLD_inline.inc
d01 2023-01-01_00:01:20  call rk_update_scalar_pd
d01 2023-01-01_00:01:20 calling inc/HALO_EM_SCALAR_OLD_E_7_inline.inc
d01 2023-01-01_00:01:20 calling inc/PERIOD_BDY_EM_SCALAR_OLD_inline.inc
d01 2023-01-01_00:01:20  call rk_update_scalar_pd
d01 2023-01-01_00:01:20 calling inc/HALO_EM_CHEM_OLD_E_7_inline.inc
d01 2023-01-01_00:01:20 calling inc/PERIOD_BDY_EM_CHEM_OLD_inline.inc
d01 2023-01-01_00:01:20  call rk_update_scalar_pd
d01 2023-01-01_00:01:20 calling inc/HALO_EM_TRACER_OLD_E_7_inline.inc
d01 2023-01-01_00:01:20 calling inc/PERIOD_BDY_EM_TRACER_OLD_inline.inc
d01 2023-01-01_00:01:20 calling inc/HALO_EM_D_inline.inc
d01 2023-01-01_00:01:20 calling inc/PERIOD_EM_DA_inline.inc
d01 2023-01-01_00:01:20  call rk_scalar_tend
d01 2023-01-01_00:01:20  call rk_update_scalar
d01 2023-01-01_00:01:20  call rk_scalar_tend
d01 2023-01-01_00:01:20  call rk_update_scalar
d01 2023-01-01_00:01:20  call rk_scalar_tend
d01 2023-01-01_00:01:20  call rk_update_scalar
d01 2023-01-01_00:01:20  call rk_scalar_tend
d01 2023-01-01_00:01:20  call rk_update_scalar
d01 2023-01-01_00:01:20  call rk_scalar_tend
d01 2023-01-01_00:01:20  call rk_update_scalar
d01 2023-01-01_00:01:20  call rk_scalar_tend
d01 2023-01-01_00:01:20  call rk_update_scalar
d01 2023-01-01_00:01:20  call rk_scalar_tend
d01 2023-01-01_00:01:20  call rk_update_scalar
d01 2023-01-01_00:01:20  call rk_scalar_tend
d01 2023-01-01_00:01:20  call rk_update_scalar
d01 2023-01-01_00:01:20  call rk_scalar_tend
d01 2023-01-01_00:01:20  call rk_update_scalar
d01 2023-01-01_00:01:20  call rk_scalar_tend
d01 2023-01-01_00:01:20  call rk_update_scalar
d01 2023-01-01_00:01:20  call advance_ppt
d01 2023-01-01_00:01:20  call phy_prep_part2
d01 2023-01-01_00:01:20  call moist_physics_prep
d01 2023-01-01_00:01:20  call microphysics_driver
d01 2023-01-01_00:01:20 calling inc/HALO_EM_SBM_inline.inc
d01 2023-01-01_00:01:20 microphysics_driver: calling morrison two moment
d01 2023-01-01_00:01:20 microphysics_driver: returning from
d01 2023-01-01_00:01:20  call moist_physics_finish
d01 2023-01-01_00:01:20 zero out small condensates, zero out negative vapor
d01 2023-01-01_00:01:20 zero out small condensates, zero out negative vapor
d01 2023-01-01_00:01:20 zero out small condensates, zero out negative vapor
d01 2023-01-01_00:01:20 zero out small condensates, zero out negative vapor
d01 2023-01-01_00:01:20 calling inc/HALO_EM_THETAM_inline.inc
d01 2023-01-01_00:01:20 calling inc/PERIOD_EM_THETAM_inline.inc
d01 2023-01-01_00:01:20  call chem polar filter
d01 2023-01-01_00:01:20 calling inc/HALO_EM_D3_5_inline.inc
d01 2023-01-01_00:01:20 calling inc/PERIOD_BDY_EM_D3_inline.inc
d01 2023-01-01_00:01:20 calling inc/PERIOD_BDY_EM_MOIST_inline.inc
d01 2023-01-01_00:01:20 calling inc/PERIOD_BDY_EM_CHEM_inline.inc
d01 2023-01-01_00:01:20 calling inc/PERIOD_BDY_EM_TRACER_inline.inc
d01 2023-01-01_00:01:20 calling inc/PERIOD_BDY_EM_SCALAR_inline.inc
d01 2023-01-01_00:01:20  call set_phys_bc_dry_2
d01 2023-01-01_00:01:20  call spec_bdy_final
d01 2023-01-01_00:01:20 calling inc/HALO_EM_C_inline.inc
d01 2023-01-01_00:01:20 calling inc/PERIOD_BDY_EM_E_inline.inc
d01 2023-01-01_00:01:20  call set_w_surface
d01 2023-01-01_00:01:20 calling inc/HALO_EM_PHYS_W_inline.inc
d01 2023-01-01_00:01:20 calling inc/HALO_EM_PHYS_HCW_inline.inc
d01 2023-01-01_00:01:20 --> TOP OF AFTER ALL RK STEPS
d01 2023-01-01_00:01:20 --> CALLING DIAGNOSTICS DRIVER
d01 2023-01-01_00:01:20 --> TOP OF DIAGNOSTICS PACKAGE
d01 2023-01-01_00:01:20 --> CALL DIAGNOSTICS PACKAGE: ACCUMULATED AND BUCKET DIAGNOSTICS
d01 2023-01-01_00:01:20  call HALO_RK_E
d01 2023-01-01_00:01:20 calling inc/HALO_EM_E_5_inline.inc
d01 2023-01-01_00:01:20  call HALO_RK_MOIST
d01 2023-01-01_00:01:20 calling inc/HALO_EM_MOIST_E_5_inline.inc
d01 2023-01-01_00:01:20  call HALO_RK_SCALAR
d01 2023-01-01_00:01:20 calling inc/HALO_EM_SCALAR_E_5_inline.inc
d01 2023-01-01_00:01:20  call end of solve_em
d01 2023-01-01_00:01:20  DEBUG wrf_timetoa():  returning with str = [2023-01-01_00:01:20]
d01 2023-01-01_00:01:20  DEBUG wrf_timetoa():  returning with str = [2023-01-01_00:00:00]
d01 2023-01-01_00:01:20  DEBUG wrf_timetoa():  returning with str = [2023-01-02_00:00:00]
d01 2023-01-01_00:01:20  DEBUG wrf_timeinttoa():  returning with str = [0000000000_000:000:020]
 DEBUG domain_clockadvance():  before WRFU_ClockAdvance,  clock start time = 2023-01-01_00:00:00
 DEBUG domain_clockadvance():  before WRFU_ClockAdvance,  clock current time = 2023-01-01_00:01:20
 DEBUG domain_clockadvance():  before WRFU_ClockAdvance,  clock stop time = 2023-01-02_00:00:00
 DEBUG domain_clockadvance():  before WRFU_ClockAdvance,  clock time step = 0000000000_000:000:020
d01 2023-01-01_00:01:40  DEBUG wrf_timetoa():  returning with str = [2023-01-01_00:01:40]
d01 2023-01-01_00:01:40  DEBUG wrf_timetoa():  returning with str = [2023-01-01_00:00:00]
d01 2023-01-01_00:01:40  DEBUG wrf_timetoa():  returning with str = [2023-01-02_00:00:00]
d01 2023-01-01_00:01:40  DEBUG wrf_timeinttoa():  returning with str = [0000000000_000:000:020]
 DEBUG domain_clockadvance():  after WRFU_ClockAdvance,  clock start time = 2023-01-01_00:00:00
 DEBUG domain_clockadvance():  after WRFU_ClockAdvance,  clock current time = 2023-01-01_00:01:40
 DEBUG domain_clockadvance():  after WRFU_ClockAdvance,  clock stop time = 2023-01-02_00:00:00
 DEBUG domain_clockadvance():  after WRFU_ClockAdvance,  clock time step = 0000000000_000:000:020
d01 2023-01-01_00:01:40 module_integrate: back from solve interface
d01 2023-01-01_00:01:40  DEBUG wrf_timetoa():  returning with str = [2023-01-01_00:01:40]
Timing for main: time 2023-01-01_00:01:40 on domain   1:    0.14631 elapsed seconds
d01 2023-01-01_00:01:40 in med_latbound_in
d01 2023-01-01_00:01:40 module_integrate: calling solve interface
d01 2023-01-01_00:01:40  grid spacing, dt, time_step_sound=   4000.00000       20.0000000               4
d01 2023-01-01_00:01:40 calling inc/HALO_EM_MOIST_OLD_E_7_inline.inc
d01 2023-01-01_00:01:40 calling inc/PERIOD_BDY_EM_MOIST_OLD_inline.inc
d01 2023-01-01_00:01:40  call rk_step_prep
d01 2023-01-01_00:01:40 calling inc/HALO_EM_A_inline.inc
d01 2023-01-01_00:01:40 calling inc/PERIOD_BDY_EM_A_inline.inc
d01 2023-01-01_00:01:40  call rk_phys_bc_dry_1
d01 2023-01-01_00:01:40  call init_zero_tendency
d01 2023-01-01_00:01:40 calling inc/HALO_EM_PHYS_A_inline.inc
d01 2023-01-01_00:01:40  call phy_prep
d01 2023-01-01_00:01:40  DEBUG wrf_timetoa():  returning with str = [2023-01-01_00:01:40]
d01 2023-01-01_00:01:40  call radiation_driver
d01 2023-01-01_00:01:40 Top of Radiation Driver
d01 2023-01-01_00:01:40 calling inc/HALO_PWP_inline.inc
d01 2023-01-01_00:01:40  call surface_driver
d01 2023-01-01_00:01:40 SST_UPDATE is on
d01 2023-01-01_00:01:40 in PX Surface Layer scheme
d01 2023-01-01_00:01:40 in P-X LSM
d01 2023-01-01_00:01:40  call pbl_driver
d01 2023-01-01_00:01:40 in ACM PBL
d01 2023-01-01_00:01:40  call cumulus_driver
d01 2023-01-01_00:01:40 calling inc/HALO_CUP_G3_IN_inline.inc
d01 2023-01-01_00:01:40 in kf_eta_cps
d01 2023-01-01_00:01:40 returning from cumulus_driver
d01 2023-01-01_00:01:40  call shallow_cumulus_driver
d01 2023-01-01_00:01:40 calling inc/HALO_EM_FDDA_SFC_inline.inc
d01 2023-01-01_00:01:40  call fddagd_driver
d01 2023-01-01_00:01:40 in PSU FDDA scheme
    D01 At xtime=******* SFC FDDA sample TH2 analysis (i=  23, j=  11) = (th2_ndg_old= 285.97) * 1.00 + (th2_ndg_new= 278.77) * 0.00 where tfac_sfc=1.00
    D01  xtime_old_sfc=******* analysis_interval_sfc= 360 actual_end_fdda_min_sfc=******* dtramp_min=  60.00
    D01 At xtime=******* FDDA sample pot. temp. analysis (i=  23, j=  11 k=  18) = (t_ndg_old=   1.78) * 1.00 + (t_ndg_new=   2.98) * 0.00 where tfac=1.00
    D01  xtime_old=******* analysis_interval= 360 actual_end_fdda_min=******* dtramp_min=  60.00
d01 2023-01-01_00:01:40  call calculate_phy_tend
d01 2023-01-01_00:01:40  call compute_diff_metrics
d01 2023-01-01_00:01:40 calling inc/HALO_EM_TKE_C_inline.inc
d01 2023-01-01_00:01:40 calling inc/PERIOD_BDY_EM_A1_inline.inc
d01 2023-01-01_00:01:40  call bc for diffusion_metrics
d01 2023-01-01_00:01:40  call cal_deform_and_div
d01 2023-01-01_00:01:40 calling inc/HALO_EM_HELICITY_inline.inc
d01 2023-01-01_00:01:40 calling inc/HALO_EM_TKE_D_inline.inc
d01 2023-01-01_00:01:40  call calculate_km_kh
d01 2023-01-01_00:01:40 calling inc/HALO_EM_TKE_E_inline.inc
d01 2023-01-01_00:01:40 calling inc/PERIOD_BDY_EM_PHY_BC_inline.inc
d01 2023-01-01_00:01:40 calling inc/PERIOD_BDY_EM_FDDA_BC_inline.inc
d01 2023-01-01_00:01:40 calling inc/PERIOD_BDY_EM_CHEM_inline.inc
d01 2023-01-01_00:01:40  call phy_bc
d01 2023-01-01_00:01:40 calling inc/HALO_EM_PHYS_PBL_inline.inc
d01 2023-01-01_00:01:40 calling inc/HALO_EM_FDDA_inline.inc
d01 2023-01-01_00:01:40 calling inc/HALO_EM_PHYS_DIFFUSION_inline.inc
d01 2023-01-01_00:01:40 calling inc/HALO_EM_TKE_5_inline.inc
d01 2023-01-01_00:01:40  call update_phy_ten
d01 2023-01-01_00:01:40  call rk_tendency
d01 2023-01-01_00:01:40  call small_step_prep
d01 2023-01-01_00:01:40 calling inc/HALO_EM_B_inline.inc
d01 2023-01-01_00:01:40 calling inc/PERIOD_BDY_EM_B_inline.inc
d01 2023-01-01_00:01:40 calling inc/PERIOD_BDY_EM_B_inline.inc
d01 2023-01-01_00:01:40 calling inc/HALO_EM_C_inline.inc
d01 2023-01-01_00:01:40 calling inc/HALO_EM_C2_inline.inc
d01 2023-01-01_00:01:40 calling inc/PERIOD_BDY_EM_B3_inline.inc
d01 2023-01-01_00:01:40  call rk_small_finish
d01 2023-01-01_00:01:40 calling inc/HALO_EM_D_inline.inc
d01 2023-01-01_00:01:40 calling inc/PERIOD_EM_DA_inline.inc
d01 2023-01-01_00:01:40  call rk_scalar_tend
d01 2023-01-01_00:01:40  call rk_update_scalar
d01 2023-01-01_00:01:40  call rk_scalar_tend
d01 2023-01-01_00:01:40  call rk_update_scalar
d01 2023-01-01_00:01:40  call rk_scalar_tend
d01 2023-01-01_00:01:40  call rk_update_scalar
d01 2023-01-01_00:01:40  call rk_scalar_tend
d01 2023-01-01_00:01:40  call rk_update_scalar
d01 2023-01-01_00:01:40  call rk_scalar_tend
d01 2023-01-01_00:01:40  call rk_update_scalar
d01 2023-01-01_00:01:40  call rk_scalar_tend
d01 2023-01-01_00:01:40  call rk_update_scalar
d01 2023-01-01_00:01:40  call rk_scalar_tend
d01 2023-01-01_00:01:40  call rk_update_scalar
d01 2023-01-01_00:01:40  call rk_scalar_tend
d01 2023-01-01_00:01:40  call rk_update_scalar
d01 2023-01-01_00:01:40  call rk_scalar_tend
d01 2023-01-01_00:01:40  call rk_update_scalar
d01 2023-01-01_00:01:40  call rk_scalar_tend
d01 2023-01-01_00:01:40  call rk_update_scalar
d01 2023-01-01_00:01:40 calling inc/HALO_EM_D2_5_inline.inc
d01 2023-01-01_00:01:40 calling inc/PERIOD_BDY_EM_D_inline.inc
d01 2023-01-01_00:01:40 calling inc/PERIOD_BDY_EM_MOIST2_inline.inc
d01 2023-01-01_00:01:40 calling inc/PERIOD_BDY_EM_CHEM2_inline.inc
d01 2023-01-01_00:01:40 calling inc/PERIOD_BDY_EM_TRACER2_inline.inc
d01 2023-01-01_00:01:40 calling inc/PERIOD_BDY_EM_SCALAR2_inline.inc
d01 2023-01-01_00:01:40 calling inc/PERIOD_BDY_EM_TKE_inline.inc
d01 2023-01-01_00:01:40  call rk_phys_bc_dry_2
d01 2023-01-01_00:01:40 calling inc/HALO_EM_TKE_5_inline.inc
d01 2023-01-01_00:01:40 calling inc/HALO_EM_MOIST_E_5_inline.inc
d01 2023-01-01_00:01:40 calling inc/HALO_EM_SCALAR_E_5_inline.inc
d01 2023-01-01_00:01:40  call rk_step_prep
d01 2023-01-01_00:01:40 calling inc/HALO_EM_A_inline.inc
d01 2023-01-01_00:01:40 calling inc/PERIOD_BDY_EM_A_inline.inc
d01 2023-01-01_00:01:40  call rk_phys_bc_dry_1
d01 2023-01-01_00:01:40  call rk_tendency
d01 2023-01-01_00:01:40  call small_step_prep
d01 2023-01-01_00:01:40 calling inc/HALO_EM_B_inline.inc
d01 2023-01-01_00:01:40 calling inc/PERIOD_BDY_EM_B_inline.inc
d01 2023-01-01_00:01:40 calling inc/PERIOD_BDY_EM_B_inline.inc
d01 2023-01-01_00:01:40 calling inc/HALO_EM_C_inline.inc
d01 2023-01-01_00:01:40 calling inc/HALO_EM_C2_inline.inc
d01 2023-01-01_00:01:40 calling inc/PERIOD_BDY_EM_B3_inline.inc
d01 2023-01-01_00:01:40 calling inc/PERIOD_BDY_EM_B_inline.inc
d01 2023-01-01_00:01:40 calling inc/HALO_EM_C_inline.inc
d01 2023-01-01_00:01:40 calling inc/HALO_EM_C2_inline.inc
d01 2023-01-01_00:01:40 calling inc/PERIOD_BDY_EM_B3_inline.inc
d01 2023-01-01_00:01:40  call rk_small_finish
d01 2023-01-01_00:01:40 calling inc/HALO_EM_D_inline.inc
d01 2023-01-01_00:01:40 calling inc/PERIOD_EM_DA_inline.inc
d01 2023-01-01_00:01:40  call rk_scalar_tend
d01 2023-01-01_00:01:40  call rk_update_scalar
d01 2023-01-01_00:01:40  call rk_scalar_tend
d01 2023-01-01_00:01:40  call rk_update_scalar
d01 2023-01-01_00:01:40  call rk_scalar_tend
d01 2023-01-01_00:01:40  call rk_update_scalar
d01 2023-01-01_00:01:40  call rk_scalar_tend
d01 2023-01-01_00:01:40  call rk_update_scalar
d01 2023-01-01_00:01:40  call rk_scalar_tend
d01 2023-01-01_00:01:40  call rk_update_scalar
d01 2023-01-01_00:01:40  call rk_scalar_tend
d01 2023-01-01_00:01:40  call rk_update_scalar
d01 2023-01-01_00:01:40  call rk_scalar_tend
d01 2023-01-01_00:01:40  call rk_update_scalar
d01 2023-01-01_00:01:40  call rk_scalar_tend
d01 2023-01-01_00:01:40  call rk_update_scalar
d01 2023-01-01_00:01:40  call rk_scalar_tend
d01 2023-01-01_00:01:40  call rk_update_scalar
d01 2023-01-01_00:01:40  call rk_scalar_tend
d01 2023-01-01_00:01:40  call rk_update_scalar
d01 2023-01-01_00:01:40 calling inc/HALO_EM_D2_5_inline.inc
d01 2023-01-01_00:01:40 calling inc/PERIOD_BDY_EM_D_inline.inc
d01 2023-01-01_00:01:40 calling inc/PERIOD_BDY_EM_MOIST2_inline.inc
d01 2023-01-01_00:01:40 calling inc/PERIOD_BDY_EM_CHEM2_inline.inc
d01 2023-01-01_00:01:40 calling inc/PERIOD_BDY_EM_TRACER2_inline.inc
d01 2023-01-01_00:01:40 calling inc/PERIOD_BDY_EM_SCALAR2_inline.inc
d01 2023-01-01_00:01:40 calling inc/PERIOD_BDY_EM_TKE_inline.inc
d01 2023-01-01_00:01:40  call rk_phys_bc_dry_2
d01 2023-01-01_00:01:40 calling inc/HALO_EM_TKE_7_inline.inc
d01 2023-01-01_00:01:40 calling inc/HALO_EM_MOIST_E_7_inline.inc
d01 2023-01-01_00:01:40 calling inc/HALO_EM_SCALAR_E_7_inline.inc
d01 2023-01-01_00:01:40  call rk_step_prep
d01 2023-01-01_00:01:40 calling inc/HALO_EM_A_inline.inc
d01 2023-01-01_00:01:40 calling inc/PERIOD_BDY_EM_A_inline.inc
d01 2023-01-01_00:01:40  call rk_phys_bc_dry_1
d01 2023-01-01_00:01:40  call rk_tendency
d01 2023-01-01_00:01:40  call small_step_prep
d01 2023-01-01_00:01:40 calling inc/HALO_EM_B_inline.inc
d01 2023-01-01_00:01:40 calling inc/PERIOD_BDY_EM_B_inline.inc
d01 2023-01-01_00:01:40 calling inc/PERIOD_BDY_EM_B_inline.inc
d01 2023-01-01_00:01:40 calling inc/HALO_EM_C_inline.inc
d01 2023-01-01_00:01:40 calling inc/HALO_EM_C2_inline.inc
d01 2023-01-01_00:01:40 calling inc/PERIOD_BDY_EM_B3_inline.inc
d01 2023-01-01_00:01:40 calling inc/PERIOD_BDY_EM_B_inline.inc
d01 2023-01-01_00:01:40 calling inc/HALO_EM_C_inline.inc
d01 2023-01-01_00:01:40 calling inc/HALO_EM_C2_inline.inc
d01 2023-01-01_00:01:40 calling inc/PERIOD_BDY_EM_B3_inline.inc
d01 2023-01-01_00:01:40 calling inc/PERIOD_BDY_EM_B_inline.inc
d01 2023-01-01_00:01:40 calling inc/HALO_EM_C_inline.inc
d01 2023-01-01_00:01:40 calling inc/HALO_EM_C2_inline.inc
d01 2023-01-01_00:01:40 calling inc/PERIOD_BDY_EM_B3_inline.inc
d01 2023-01-01_00:01:40 calling inc/PERIOD_BDY_EM_B_inline.inc
d01 2023-01-01_00:01:40 calling inc/HALO_EM_C_inline.inc
d01 2023-01-01_00:01:40 calling inc/HALO_EM_C2_inline.inc
d01 2023-01-01_00:01:40 calling inc/PERIOD_BDY_EM_B3_inline.inc
d01 2023-01-01_00:01:40  call rk_small_finish
d01 2023-01-01_00:01:40  call rk_update_scalar_pd
d01 2023-01-01_00:01:40 calling inc/HALO_EM_MOIST_OLD_E_7_inline.inc
d01 2023-01-01_00:01:40 calling inc/PERIOD_BDY_EM_MOIST_OLD_inline.inc
d01 2023-01-01_00:01:40  call rk_update_scalar_pd
d01 2023-01-01_00:01:40 calling inc/HALO_EM_SCALAR_OLD_E_7_inline.inc
d01 2023-01-01_00:01:40 calling inc/PERIOD_BDY_EM_SCALAR_OLD_inline.inc
d01 2023-01-01_00:01:40  call rk_update_scalar_pd
d01 2023-01-01_00:01:40 calling inc/HALO_EM_CHEM_OLD_E_7_inline.inc
d01 2023-01-01_00:01:40 calling inc/PERIOD_BDY_EM_CHEM_OLD_inline.inc
d01 2023-01-01_00:01:40  call rk_update_scalar_pd
d01 2023-01-01_00:01:40 calling inc/HALO_EM_TRACER_OLD_E_7_inline.inc
d01 2023-01-01_00:01:40 calling inc/PERIOD_BDY_EM_TRACER_OLD_inline.inc
d01 2023-01-01_00:01:40 calling inc/HALO_EM_D_inline.inc
d01 2023-01-01_00:01:40 calling inc/PERIOD_EM_DA_inline.inc
d01 2023-01-01_00:01:40  call rk_scalar_tend
d01 2023-01-01_00:01:40  call rk_update_scalar
d01 2023-01-01_00:01:40  call rk_scalar_tend
d01 2023-01-01_00:01:40  call rk_update_scalar
d01 2023-01-01_00:01:40  call rk_scalar_tend
d01 2023-01-01_00:01:40  call rk_update_scalar
d01 2023-01-01_00:01:40  call rk_scalar_tend
d01 2023-01-01_00:01:40  call rk_update_scalar
d01 2023-01-01_00:01:40  call rk_scalar_tend
d01 2023-01-01_00:01:40  call rk_update_scalar
d01 2023-01-01_00:01:40  call rk_scalar_tend
d01 2023-01-01_00:01:40  call rk_update_scalar
d01 2023-01-01_00:01:40  call rk_scalar_tend
d01 2023-01-01_00:01:40  call rk_update_scalar
d01 2023-01-01_00:01:40  call rk_scalar_tend
d01 2023-01-01_00:01:40  call rk_update_scalar
d01 2023-01-01_00:01:40  call rk_scalar_tend
d01 2023-01-01_00:01:40  call rk_update_scalar
d01 2023-01-01_00:01:40  call rk_scalar_tend
d01 2023-01-01_00:01:40  call rk_update_scalar
d01 2023-01-01_00:01:40  call advance_ppt
d01 2023-01-01_00:01:40  call phy_prep_part2
d01 2023-01-01_00:01:40  call moist_physics_prep
d01 2023-01-01_00:01:40  call microphysics_driver
d01 2023-01-01_00:01:40 calling inc/HALO_EM_SBM_inline.inc
d01 2023-01-01_00:01:40 microphysics_driver: calling morrison two moment
d01 2023-01-01_00:01:40 microphysics_driver: returning from
d01 2023-01-01_00:01:40  call moist_physics_finish
d01 2023-01-01_00:01:40 zero out small condensates, zero out negative vapor
d01 2023-01-01_00:01:40 zero out small condensates, zero out negative vapor
d01 2023-01-01_00:01:40 zero out small condensates, zero out negative vapor
d01 2023-01-01_00:01:40 zero out small condensates, zero out negative vapor
d01 2023-01-01_00:01:40 calling inc/HALO_EM_THETAM_inline.inc
d01 2023-01-01_00:01:40 calling inc/PERIOD_EM_THETAM_inline.inc
d01 2023-01-01_00:01:40  call chem polar filter
d01 2023-01-01_00:01:40 calling inc/HALO_EM_D3_5_inline.inc
d01 2023-01-01_00:01:40 calling inc/PERIOD_BDY_EM_D3_inline.inc
d01 2023-01-01_00:01:40 calling inc/PERIOD_BDY_EM_MOIST_inline.inc
d01 2023-01-01_00:01:40 calling inc/PERIOD_BDY_EM_CHEM_inline.inc
d01 2023-01-01_00:01:40 calling inc/PERIOD_BDY_EM_TRACER_inline.inc
d01 2023-01-01_00:01:40 calling inc/PERIOD_BDY_EM_SCALAR_inline.inc
d01 2023-01-01_00:01:40  call set_phys_bc_dry_2
d01 2023-01-01_00:01:40  call spec_bdy_final
d01 2023-01-01_00:01:40 calling inc/HALO_EM_C_inline.inc
d01 2023-01-01_00:01:40 calling inc/PERIOD_BDY_EM_E_inline.inc
d01 2023-01-01_00:01:40  call set_w_surface
d01 2023-01-01_00:01:40 calling inc/HALO_EM_PHYS_W_inline.inc
d01 2023-01-01_00:01:40 calling inc/HALO_EM_PHYS_HCW_inline.inc
d01 2023-01-01_00:01:40 --> TOP OF AFTER ALL RK STEPS
d01 2023-01-01_00:01:40 --> CALLING DIAGNOSTICS DRIVER
d01 2023-01-01_00:01:40 --> TOP OF DIAGNOSTICS PACKAGE
d01 2023-01-01_00:01:40 --> CALL DIAGNOSTICS PACKAGE: ACCUMULATED AND BUCKET DIAGNOSTICS
d01 2023-01-01_00:01:40  call HALO_RK_E
d01 2023-01-01_00:01:40 calling inc/HALO_EM_E_5_inline.inc
d01 2023-01-01_00:01:40  call HALO_RK_MOIST
d01 2023-01-01_00:01:40 calling inc/HALO_EM_MOIST_E_5_inline.inc
d01 2023-01-01_00:01:40  call HALO_RK_SCALAR
d01 2023-01-01_00:01:40 calling inc/HALO_EM_SCALAR_E_5_inline.inc
d01 2023-01-01_00:01:40  call end of solve_em
